STAAD SPACE
START JOB INFORMATION
ENGINEER DATE 12-Jul-26
END JOB INFORMATION
INPUT WIDTH 79
UNIT METER MTON
JOINT COORDINATES
1 0 0 -4.125; 2 0 0 -1.375; 3 0 0 1.375; 4 0 0 4.125; 5 3.75 0 -4.125;
6 3.75 0 -1.375; 7 3.75 0 1.375; 8 3.75 0 4.125; 9 7.5 0 -4.125;
10 7.5 0 -1.375; 11 7.5 0 1.375; 12 7.5 0 4.125; 13 11.25 0 -4.125;
14 11.25 0 -1.375; 15 11.25 0 1.375; 16 11.25 0 4.125; 17 15 0 -4.125;
18 15 0 -1.375; 19 15 0 1.375; 20 15 0 4.125; 21 15 0 -4.125; 22 15 0 -1.375;
23 15 0 1.375; 24 15 0 4.125; 25 18.75 0 -4.125; 26 18.75 0 -1.375;
27 18.75 0 1.375; 28 18.75 0 4.125; 29 22.5 0 -4.125; 30 22.5 0 -1.375;
31 22.5 0 1.375; 32 22.5 0 4.125; 33 26.25 0 -4.125; 34 26.25 0 -1.375;
35 26.25 0 1.375; 36 26.25 0 4.125; 37 30 0 -4.125; 38 30 0 -1.375;
39 30 0 1.375; 40 30 0 4.125; 41 30 0 -4.125; 42 30 0 -1.375; 43 30 0 1.375;
44 30 0 4.125; 45 33.75 0 -4.125; 46 33.75 0 -1.375; 47 33.75 0 1.375;
48 33.75 0 4.125; 49 37.5 0 -4.125; 50 37.5 0 -1.375; 51 37.5 0 1.375;
52 37.5 0 4.125; 53 41.25 0 -4.125; 54 41.25 0 -1.375; 55 41.25 0 1.375;
56 41.25 0 4.125; 57 45 0 -4.125; 58 45 0 -1.375; 59 45 0 1.375; 60 45 0 4.125;
61 0 -1.5 -4.125; 62 0 -1.5 -1.375; 63 0 -1.5 1.375; 64 0 -1.5 4.125;
65 15 -1.2 -4.125; 66 15 -7.05 -4.125; 67 15 -1.2 4.125; 68 15 -7.05 4.125;
69 15 -1.2 -1.375; 70 15 -1.2 1.375; 71 15 -1.2 4.125; 72 30 -1.2 -4.125;
73 30 -7.05 -4.125; 74 30 -1.2 4.125; 75 30 -7.05 4.125; 76 30 -1.2 -1.375;
77 30 -1.2 1.375; 78 30 -1.2 4.125; 79 45 -1.5 -4.125; 80 45 -1.5 -1.375;
81 45 -1.5 1.375; 82 45 -1.5 4.125;
MEMBER INCIDENCES
1 1 61; 2 2 62; 3 3 63; 4 4 64; 5 65 66; 6 67 68; 7 65 69; 8 69 70; 9 70 71;
10 21 65; 11 22 69; 12 23 70; 13 24 71; 14 72 73; 15 74 75; 16 72 76; 17 76 77;
18 77 78; 19 41 72; 20 42 76; 21 43 77; 22 44 78; 23 57 79; 24 58 80; 25 59 81;
26 60 82; 27 1 5; 28 5 9; 29 9 13; 30 13 17; 31 2 6; 32 6 10; 33 10 14;
34 14 18; 35 3 7; 36 7 11; 37 11 15; 38 15 19; 39 4 8; 40 8 12; 41 12 16;
42 16 20; 43 21 25; 44 25 29; 45 29 33; 46 33 37; 47 22 26; 48 26 30; 49 30 34;
50 34 38; 51 23 27; 52 27 31; 53 31 35; 54 35 39; 55 24 28; 56 28 32; 57 32 36;
58 36 40; 59 41 45; 60 45 49; 61 49 53; 62 53 57; 63 42 46; 64 46 50; 65 50 54;
66 54 58; 67 43 47; 68 47 51; 69 51 55; 70 55 59; 71 44 48; 72 48 52; 73 52 56;
74 56 60; 75 1 2; 76 2 3; 77 3 4; 78 5 6; 79 6 7; 80 7 8; 81 9 10; 82 10 11;
83 11 12; 84 13 14; 85 14 15; 86 15 16; 87 17 18; 88 18 19; 89 19 20; 90 21 22;
91 22 23; 92 23 24; 93 25 26; 94 26 27; 95 27 28; 96 29 30; 97 30 31; 98 31 32;
99 33 34; 100 34 35; 101 35 36; 102 37 38; 103 38 39; 104 39 40; 105 41 42;
106 42 43; 107 43 44; 108 45 46; 109 46 47; 110 47 48; 111 49 50; 112 50 51;
113 51 52; 114 53 54; 115 54 55; 116 55 56; 117 57 58; 118 58 59; 119 59 60;
120 1 2; 121 2 3; 122 3 4; 123 9 10; 124 10 11; 125 11 12; 126 17 18;
127 18 19; 128 19 20; 129 21 22; 130 22 23; 131 23 24; 132 29 30; 133 30 31;
134 31 32; 135 37 38; 136 38 39; 137 39 40; 138 41 42; 139 42 43; 140 43 44;
141 49 50; 142 50 51; 143 51 52; 144 57 58; 145 58 59; 146 59 60;
START USER TABLE
TABLE 100
UNIT METER MTON
PRISMATIC
GIRDER
0.2323 0.0001797 9.347e-05 0.01198 0.0611555 0.0601992 1.143 0.559
TABLE 101
UNIT METER MTON
PRISMATIC
SLAB
0.55 0.0001776 0.346615 0.00183333 0.45815 0.45815 0.2 2.75
TABLE 102
UNIT METER MTON
PRISMATIC
DIAPH
0.3429 0.0497259 0.00257175 0.0373318 0.285636 0.285636 1.143 0.3
TABLE 103
UNIT METER MTON
PRISMATIC
PIER_COL
2.25 0.561937 0.421875 0.421875 1.87425 1.87425 1.5 1.5
TABLE 104
UNIT METER MTON
PRISMATIC
PIER_CAP
1.8 0.23017 0.3375 0.216 1.4994 1.4994 1.2 1.5
TABLE 105
UNIT METER MTON
PRISMATIC
ABUTMENT
1.8 0.44955 0.216 0.3375 1.4994 1.4994 1.5 1.2
TABLE 106
UNIT METER MTON
PRISMATIC
RIGID
100 50 50 50 50 50 2 2
END
DEFINE MATERIAL START
ISOTROPIC CONC_28MPA
E 3.36628e+10
POISSON 0.17
DENSITY 5.76598e+07
ALPHA 1e-05
DAMP 0.05
G 1.43855e+10
TYPE CONCRETE
STRENGTH FCU 4.33999e+07
ISOTROPIC CONCRETE
E 3.36636e+10
POISSON 0.17
DENSITY 5.66027e+07
ALPHA 1e-05
DAMP 0.05
G 1.4384e+10
TYPE CONCRETE
STRENGTH FCU 4.27474e+07
END DEFINE MATERIAL
CONSTANTS
MATERIAL CONC_28MPA MEMB 1 TO 9 14 TO 18 23 TO 146
MATERIAL CONCRETE MEMB 10 TO 13 19 TO 22
SUPPORTS
66 68 73 75 FIXED
61 TO 64 79 TO 82 PINNED
FINISH
