STAAD SPACE
START JOB INFORMATION
ENGINEER DATE 12-Jul-26
END JOB INFORMATION
INPUT WIDTH 79
UNIT FEET KIP
JOINT COORDINATES
1 0 0 0; 2 30 0 0; 3 0 20 0; 4 10 20 0; 5 20 20 0; 6 30 20 0; 7 0 35 0;
8 30 35 0; 9 7.5 35 0; 10 22.5 35 0; 11 15 35 0; 12 5 38 0; 13 25 38 0;
14 10 41 0; 15 20 41 0; 16 15 44 0;
MEMBER INCIDENCES
1 1 3; 2 3 7; 3 2 6; 4 6 8; 5 3 4; 6 4 5; 7 5 6; 8 7 12; 9 12 14; 10 14 16;
11 15 16; 12 13 15; 13 8 13; 14 9 12; 15 9 14; 16 11 14; 17 11 15; 18 10 15;
19 10 13; 20 7 9; 21 9 11; 22 10 11; 23 8 10;
MEMBER PROPERTY AMERICAN
1 3 4 TABLE ST W14X90
2 TABLE ST W10X49
5 TO 7 TABLE ST W21X50
8 TO 13 TABLE ST W18X35
14 TO 23 TABLE ST L40404
DEFINE MATERIAL START
ISOTROPIC STEEL
E 4.176e+06
POISSON 0.3
DENSITY 0.489024
ALPHA 6.5e-06
DAMP 0.03
G 1.6128e+06
TYPE STEEL
STRENGTH FY 5184 FU 8352 RY 1.5 RT 1.2
END DEFINE MATERIAL
CONSTANTS
BETA 90 MEMB 3 4
MATERIAL STEEL ALL
MEMBER RELEASE
5 START MZ
14 TO 23 START MPY 0.99 MPZ 0.99
14 TO 23 END MPY 0.99 MPZ 0.99
SUPPORTS
1 FIXED
2 PINNED
LOAD 1 LOADTYPE Dead  TITLE DEAD AND LIVE LOAD
SELFWEIGHT Y -1 LIST ALL
JOINT LOAD
4 FY -15
5 FY -15
11 FY -35
MEMBER LOAD
8 TO 13 UNI Y -0.9
6 UNI Y -1.2
LOAD 2 LOADTYPE Wind  TITLE WIND FROM LEFT
MEMBER LOAD
1 2 UNI GX 0.6
8 TO 10 UNI Y -1
LOAD COMB 3 75 PERCENT DL LL WL
1 0.75 2 0.75 
PERFORM ANALYSIS
FINISH
